66
Properties=species:S:1:pos:R:3:tags:I:1 pbc="F F F"
C        1.77164900      -0.02126900      -0.00751600        0
C        0.89040900      -0.90077100       0.88859300        1
C        0.02115500       1.77231000      -0.01557800        2
C       -0.88329200       0.91664300       0.88054400        3
C       -1.77233300       0.02181900       0.00756700        4
C       -0.91284200      -0.89429600      -0.87290300        5
C       -0.00791400      -0.01499200      -1.74491000        6
C        0.90444200       0.87940400      -0.89629900        7
C       -0.02179700      -1.77181100       0.01545600        8
C        0.00732800       0.01541300       1.74487900        9
H       -0.57824400       2.41979400      -0.65779900       10
H        0.63610000       2.41641900       0.61526300       11
H       -2.41365800       0.62840000      -0.63411000       12
H       -2.42265700      -0.56903700       0.65482400       13
H        0.61124500      -0.65759800      -2.37453000       14
H       -0.63246500       0.61644200      -2.38046800       15
H       -0.63120600      -2.40473500       0.66275900       16
H        0.57197500      -2.43049700      -0.62060700       17
H        2.42748300       0.58079300       0.62365100       18
H        2.40744500      -0.63888200      -0.64412600       19
H        0.64719700       0.64259900       2.36933400       20
H       -0.62705300      -0.60080400       2.38560500       21
C        1.78105100      -1.80225600       1.73089200       22
C        2.64403300      -2.69375000       1.09689300       23
C        1.78237100      -1.78648400       3.12050800       24
C        2.61091900      -2.62600800       3.84689300       25
C        3.47222300      -3.53291200       1.81748100       26
C        3.46046400      -3.50388500       3.20112000       27
H        1.13604500      -1.11785500       3.66567900       28
H        2.67702900      -2.74089600       0.01852300       29
H        2.58884900      -2.59011200       4.92669100       30
H        4.13002100      -4.21291400       1.29559700       31
H        4.10620500      -4.15819000       3.76777100       32
C       -1.76658000       1.83260600       1.71494500       33
C       -1.75607800       1.84038600       3.10459600       34
C       -2.63479700       2.71349100       1.07331300       35
C       -3.45663600       3.56503600       1.78661800       36
C       -2.57825000       2.69235800       3.82369100       37
C       -3.43309000       3.55946600       3.17040100       38
H       -2.67706800       2.74229600      -0.00537900       39
H       -1.10521400       1.18093900       3.65551700       40
H       -4.11877600       4.23627800       1.25891900       41
H       -2.54695700       2.67476200       4.90371600       42
H       -4.07385200       4.22349400       3.73136900       43
C        1.80992000       1.75857100      -1.74634900       44
C        1.80006000       1.74166300      -3.13592100       45
C        2.69957500       2.62896500      -1.11994700       46
C        3.54293800       3.44650000      -1.84776700       47
C        2.64375700       2.55952600      -3.86954100       48
C        3.52001000       3.41636500      -3.23124200       49
H        2.74198400       2.67627900      -0.04191300       50
H        1.13297300       1.08901600      -3.67541800       51
H        4.22150400       4.11032100      -1.33167400       52
H        2.61250000       2.52322600      -4.94909900       53
H        4.17772900       4.05361000      -3.80353000       54
C       -1.82525100      -1.78848300      -1.69954100       55
C       -1.82603400      -1.79734600      -3.08922100       56
C       -2.70992900      -2.64714000      -1.05030900       57
C       -3.55863800      -3.47811900      -1.75636200       58
C       -2.67506800      -2.62881700      -3.80106400       59
C       -3.54619600      -3.47376500      -3.14029200       60
H       -2.74408600      -2.67444300       0.02871100       61
H       -1.16322600      -1.15477600      -3.64581800       62
H       -4.23312800      -4.13226600      -1.22286500       63
H       -2.65196600      -2.61266900      -4.88131700       64
H       -4.20801600      -4.12169000      -3.69560900       65
