52
Properties=species:S:1:pos:R:3:tags:I:1 pbc="F F F"
C       1.07573747       0.69576201       4.19532208        0 
C      -0.26372455       0.27200459       4.81764897        1 
C      -1.30631352       1.35122178       4.49712722        2 
C      -0.73335002      -1.05199111       4.19513594        3 
C       0.92894555       0.86762289       2.67853999        4 
C       0.44990576      -0.46639674       2.09328051        5 
C      -0.89990223      -0.89922013       2.67835150        6 
C      -1.93108409       0.19693768       2.38678173        7 
C      -1.48331691       1.53455830       2.98490771        8 
C      -0.13099707       1.93596400       2.38691879        9 
H       1.40234997       1.63148091       4.65359747       10 
H       1.84473526      -0.05208441       4.39620063       11 
H      -0.98348761       2.29821617       4.93507756       12 
H      -2.26390446       1.06119557       4.93497850       13 
H      -1.67983269      -1.34616913       4.65326529       14 
H      -0.01250342      -1.84635122       4.39604166       15 
H       1.19205481      -1.23458332       2.32066014       16 
H       0.35501820      -0.36811874       1.00921399       17 
H      -2.05667340       0.27675801       1.30734622       18 
H      -2.90166738      -0.06721962       2.80852982       19 
H      -0.20633076       2.06426232       1.30747517       20 
H       0.16641597       2.89685294       2.80871108       21 
H      -0.14623458       0.15027994       5.88226089       22 
H       1.87075854       1.16361708       2.24564848       23 
H      -1.22812224      -1.83021745       2.24529845       24 
H      -2.21730685       2.29433352       2.77038566       25 
C       0.73310372       1.05196518      -4.19529751        8 
C      -1.07568569      -0.69605282      -4.19535869        0 
C       0.26373590      -0.27218056      -4.81767633        1 
C       1.30648279      -1.35119247      -4.49696716        9 
C      -0.92894194      -0.86772847      -2.67855361        7 
C      -0.45013629       0.46642142      -2.09339353        6 
C       0.89961701       0.89939710      -2.67848710        5 
C       1.93095768      -0.19656107      -2.38672693        4 
C       1.48343631      -1.53432558      -2.98471529        3 
C       0.13114731      -1.93587721      -2.38675218        2 
H       1.67954845       1.34625510      -4.65342895       16 
H       0.01212264       1.84617323      -4.39632146       17 
H      -1.40214455      -1.63186028      -4.65355648       18 
H      -1.84477729       0.05166631      -4.39635207       19 
H       0.98384655      -2.29829734      -4.93481826       20 
H       2.26404255      -1.06105046      -4.93480851       21 
H      -1.19241399       1.23447754      -2.32080551       14 
H      -0.35521992       0.36821989      -1.00932335       15 
H       2.05650911      -0.27622804      -1.30727262       12 
H       2.90152014       0.06771396      -2.80845144       13 
H       0.20643734      -2.06403311      -1.30728785       10 
H      -0.16611498      -2.89685972      -2.80844067       11 
H       0.14628698      -0.15062022      -5.88231155        0 
H      -1.87074005      -1.16381930      -2.24569583        0 
H       1.22766989       1.83050993      -2.24555578        0 
H       2.21753523      -2.29395822      -2.77006128        0 
