132
Properties=species:S:1:pos:R:3:tags:I:1 pbc="F F F"
C       1.07573747       0.69576201       4.19532208        0 
C      -0.26372455       0.27200459       4.81764897        1 
C      -0.13099707       1.93596400       2.38691879        2 
C      -1.48331691       1.53455830       2.98490771        3 
C      -1.93108409       0.19693768       2.38678173        4 
C      -0.89990223      -0.89922013       2.67835150        5 
C       0.44990576      -0.46639674       2.09328051        6 
C       0.92894555       0.86762289       2.67853999        7 
C      -0.73335002      -1.05199111       4.19513594        8 
C      -1.30631352       1.35122178       4.49712722        9 
H      -0.20633076       2.06426232       1.30747517       10 
H       0.16641597       2.89685294       2.80871108       11 
H      -2.05667340       0.27675801       1.30734622       12 
H      -2.90166738      -0.06721962       2.80852982       13 
H       1.19205481      -1.23458332       2.32066014       14 
H       0.35501820      -0.36811874       1.00921399       15 
H      -1.67983269      -1.34616913       4.65326529       16 
H      -0.01250342      -1.84635122       4.39604166       17 
H       1.40234997       1.63148091       4.65359747       18 
H       1.84473526      -0.05208441       4.39620063       19 
H      -0.98348761       2.29821617       4.93507756       20 
H      -2.26390446       1.06119557       4.93497850       21 
C      -0.07390949       0.07540704       6.31440102       22 
C       0.84154931      -0.87220168       6.76763993       23 
C      -0.77396106       0.79995011       7.27153648       24 
C      -0.56860108       0.58729784       8.62480276       25 
C       1.04963299      -1.08767535       8.11648606       26 
C       0.34354208      -0.35686541       9.05604877       27 
H      -1.49512014       1.54643349       6.98048154       28 
H       1.40832819      -1.45878812       6.05989858       29 
H      -1.12855853       1.16682550       9.34474580       30 
H       1.76691737      -1.83013385       8.43547359       31 
H       0.50334344      -0.52237087      10.11113123       32 
C      -2.51265052       2.60013815       2.63983727       33 
C      -3.21272725       3.32454362       3.59656913       34 
C      -2.78079450       2.87821383       1.30140568       35 
C      -3.70493150       3.83517947       0.93019480       36 
C      -4.14099357       4.28575959       3.23039767       37 
C      -4.39308649       4.54731621       1.89707401       38 
H      -2.25934473       2.33854807       0.52569863       39 
H      -3.04745657       3.15303352       4.64796978       40 
H      -3.88861411       4.02575626      -0.11752486       41 
H      -4.66976182       4.83291784       3.99759820       42 
H      -5.11674181       5.29673349       1.61289571       43 
C       2.25204932       1.31832939       2.07555921       44 
C       2.97960546       0.54184138       1.18274801       45 
C       2.77151157       2.56739436       2.40689193       46 
C       3.94582095       3.03157370       1.84635852       47 
C       4.15403328       1.00332196       0.61336634       48 
C       4.63973027       2.25551842       0.93504563       49 
H       2.25717502       3.19695239       3.11749531       50 
H       2.64824653      -0.44952188       0.92059051       51 
H       4.32004148       4.00688234       2.12185931       52 
H       4.68764329       0.37466829      -0.08507702       53 
H       5.55228678       2.62038213       0.48812292       54 
C      -1.39580586      -2.20600078       2.07523477       55 
C      -0.64461137      -2.95989117       1.18262245       56 
C      -2.66208531      -2.68215594       2.40628729       57 
C      -3.16628293      -3.83980898       1.84567419       58 
C      -1.14610745      -4.11776870       0.61317457       59 
C      -2.41435765      -4.56006362       0.93457554       60 
H      -3.27375959      -2.14640744       3.11669091       61 
H       0.35761353      -2.66285546       0.92062315       62 
H      -4.15398542      -4.18019590       2.12090805       63 
H      -0.53604333      -4.67269595      -0.08514458       64 
H      -2.81031624      -5.45952957       0.48757719       65 
C      -1.07568569      -0.69605282      -4.19535869       66 
C       0.26373590      -0.27218056      -4.81767633       67 
C       0.13114731      -1.93587721      -2.38675218       68 
C       1.48343631      -1.53432558      -2.98471529       69 
C       1.93095768      -0.19656107      -2.38672693       70 
C       0.89961701       0.89939710      -2.67848710       71 
C      -0.45013629       0.46642142      -2.09339353       72 
C      -0.92894194      -0.86772847      -2.67855361       73 
C       0.73310372       1.05196518      -4.19529751       74 
C       1.30648279      -1.35119247      -4.49696716       75 
H       0.20643734      -2.06403311      -1.30728785       76 
H      -0.16611498      -2.89685972      -2.80844067       77 
H       2.05650911      -0.27622804      -1.30727262       78 
H       2.90152014       0.06771396      -2.80845144       79 
H      -1.19241399       1.23447754      -2.32080551       80 
H      -0.35521992       0.36821989      -1.00932335       81 
H       1.67954845       1.34625510      -4.65342895       82 
H       0.01212264       1.84617323      -4.39632146       83 
H      -1.40214455      -1.63186028      -4.65355648       84 
H      -1.84477729       0.05166631      -4.39635207       85 
H       0.98384655      -2.29829734      -4.93481826       86 
H       2.26404255      -1.06105046      -4.93480851       87 
C       0.07391349      -0.07583970      -6.31446158       88 
C      -0.84167819       0.87156756      -6.76785410       89 
C       0.77402076      -0.80048424      -7.27147926       90 
C       0.56857108      -0.58813672      -8.62478016       91 
C      -1.04985209       1.08673631      -8.11673472       92 
C      -0.34371842       0.35581543      -9.05617886       93 
H       1.49528882      -1.54681467      -6.98030178       94 
H      -1.40850140       1.45822613      -6.06020849       95 
H       1.12856468      -1.16774537      -9.34462981       96 
H      -1.76724685       1.82903709      -8.43584099       97 
H      -0.50360236       0.52107117     -10.11128796       98 
C       2.51297497      -2.59964017      -2.63944552       99 
C       3.21344085      -3.32386090      -3.59603040      100 
C       2.78098955      -2.87756971      -1.30095775      101 
C       3.70539530      -3.83419727      -0.92954878      102 
C       4.14197518      -4.28474356      -3.22966072      103 
C       4.39395397      -4.54613980      -1.89628383      104 
H       2.25922211      -2.33804352      -0.52536873      105 
H       3.04827367      -3.15245978      -4.64746546      106 
H       3.88897945      -4.02465574       0.11821009      107 
H       4.67105392      -4.83176053      -3.99674776      108 
H       5.11783379      -5.29528216      -1.61195241      109 
C      -2.25201010      -1.31861961      -2.07564403      110 
C      -2.97958522      -0.54238701      -1.18263139      111 
C      -2.77142429      -2.56761855      -2.40730078      112 
C      -3.94575091      -3.03195931      -1.84694315      113 
C      -4.15402061      -1.00404205      -0.61340662      114 
C      -4.63970288      -2.25614958      -0.93545416      115 
H      -2.25702778      -3.19699348      -3.11802453      116 
H      -2.64823068       0.44890464      -0.92019639      117 
H      -4.31995182      -4.00719814      -2.12271977      118 
H      -4.68765171      -0.37560180       0.08520960      119 
H      -5.55228461      -2.62113205      -0.48868103      120 
C       1.39537438       2.20627975      -2.07547926      121 
C       0.64427589       2.95996502      -1.18261744      122 
C       2.66148323       2.68268431      -2.40682683      123 
C       3.16561940       3.84038631      -1.84626393      124 
C       1.14571783       4.11788537      -0.61320729      125 
C       2.41380624       4.56042964      -0.93490510      126 
H       3.27307354       2.14708202      -3.11741407      127 
H      -0.35782726       2.66271857      -0.92039251      128 
H       4.15318960       4.18097059      -2.12173009      129 
H       0.53574239       4.67265037       0.08531761      130 
H       2.80972278       5.45993206      -0.48794236      131 
