48
Properties=species:S:1:pos:R:3:tags:I:1 pbc="F F F"
C      -0.07390949       0.07540704       6.31440102        0 
C       0.84154931      -0.87220168       6.76763993        1 
C      -0.77396106       0.79995011       7.27153648        2 
C       1.04963299      -1.08767535       8.11648606        3 
H       1.40832819      -1.45878812       6.05989858        4 
C      -0.56860108       0.58729784       8.62480276        5 
H      -1.49512014       1.54643349       6.98048154        6 
C       0.34354208      -0.35686541       9.05604877        7 
H       1.76691737      -1.83013385       8.43547359        8 
H      -1.12855853       1.16682550       9.34474580        9 
H       0.50334344      -0.52237087      10.11113123       10 
H      -0.23470768       0.24192214       5.26157815       11 
C      -2.51265052       2.60013815       2.63983727       33 
C      -3.21272725       3.32454362       3.59656913       34 
C      -2.78079450       2.87821383       1.30140568       35 
C      -4.14099357       4.28575959       3.23039767       37 
H      -3.04745657       3.15303352       4.64796978       40 
C      -3.70493150       3.83517947       0.93019480       36 
H      -2.25934473       2.33854807       0.52569863       39 
C      -4.39308649       4.54731621       1.89707401       38 
H      -4.66976182       4.83291784       3.99759820       42 
H      -3.88861411       4.02575626      -0.11752486       41 
H      -5.11674181       5.29673349       1.61289571       43 
H      -1.79037335       1.85230324       2.92457916        0 
C       2.25204932       1.31832939       2.07555921       44 
C       2.97960546       0.54184138       1.18274801       45 
C       2.77151157       2.56739436       2.40689193       46 
C       4.15403328       1.00332196       0.61336634       48 
H       2.64824653      -0.44952188       0.92059051       51 
C       3.94582095       3.03157370       1.84635852       47 
H       2.25717502       3.19695239       3.11749531       50 
C       4.63973027       2.25551842       0.93504563       49 
H       4.68764329       0.37466829      -0.08507702       53 
H       4.32004148       4.00688234       2.12185931       52 
H       5.55228678       2.62038213       0.48812292       54 
H       1.32302234       0.96626020       2.49385990        0 
C      -1.39580586      -2.20600078       2.07523477       55 
C      -0.64461137      -2.95989117       1.18262245       56 
C      -2.66208531      -2.68215594       2.40628729       57 
C      -1.14610745      -4.11776870       0.61317457       59 
H       0.35761353      -2.66285546       0.92062315       62 
C      -3.16628293      -3.83980898       1.84567419       58 
H      -3.27375959      -2.14640744       3.11669091       61 
C      -2.41435765      -4.56006362       0.93457554       60 
H      -0.53604333      -4.67269595      -0.08514458       64 
H      -4.15398542      -4.18019590       2.12090805       63 
H      -2.81031624      -5.45952957       0.48757719       65 
H      -1.01207122      -1.28962555       2.49359285        0 
