48
Properties=species:S:1:pos:R:3:tags:I:1 pbc="F F F"
C       0.07391349      -0.07583970      -6.31446158        0 
C      -0.84167819       0.87156756      -6.76785410        1 
C       0.77402076      -0.80048424      -7.27147926        2 
C      -1.04985209       1.08673631      -8.11673472        3 
H      -1.40850140       1.45822613      -6.06020849        4 
C       0.56857108      -0.58813672      -8.62478016        5 
H       1.49528882      -1.54681467      -6.98030178        6 
C      -0.34371842       0.35581543      -9.05617886        7 
H      -1.76724685       1.82903709      -8.43584099        8 
H       1.12856468      -1.16774537      -9.34462981        9 
H      -0.50360236       0.52107117     -10.11128796       10 
H       0.23476932      -0.24212868      -5.26161178       11 
C       2.51297497      -2.59964017      -2.63944552       33 
C       3.21344085      -3.32386090      -3.59603040       34 
C       2.78098955      -2.87756971      -1.30095775       35 
C       4.14197518      -4.28474356      -3.22966072       37 
H       3.04827367      -3.15245978      -4.64746546       40 
C       3.70539530      -3.83419727      -0.92954878       36 
H       2.25922211      -2.33804352      -0.52536873       39 
C       4.39395397      -4.54613980      -1.89628383       38 
H       4.67105392      -4.83176053      -3.99674776       42 
H       3.88897945      -4.02465574       0.11821009       41 
H       5.11783379      -5.29528216      -1.61195241       43 
H       1.79050314      -1.85205118      -2.92433933        0 
C      -2.25201010      -1.31861961      -2.07564403       44 
C      -2.97958522      -0.54238701      -1.18263139       45 
C      -2.77142429      -2.56761855      -2.40730078       46 
C      -4.15402061      -1.00404205      -0.61340662       48 
H      -2.64823068       0.44890464      -0.92019639       51 
C      -3.94575091      -3.03195931      -1.84694315       47 
H      -2.25702778      -3.19699348      -3.11802453       50 
C      -4.63970288      -2.25614958      -0.93545416       49 
H      -4.68765171      -0.37560180       0.08520960       53 
H      -4.31995182      -4.00719814      -2.12271977       52 
H      -5.55228461      -2.62113205      -0.48868103       54 
H      -1.32299788      -0.96640671      -2.49385651        0 
C       1.39537438       2.20627975      -2.07547926       55 
C       0.64427589       2.95996502      -1.18261744       56 
C       2.66148323       2.68268431      -2.40682683       57 
C       1.14571783       4.11788537      -0.61320729       59 
H      -0.35782726       2.66271857      -0.92039251       62 
C       3.16561940       3.84038631      -1.84626393       58 
H       3.27307354       2.14708202      -3.11741407       61 
C       2.41380624       4.56042964      -0.93490510       60 
H       0.53574239       4.67265037       0.08531761       64 
H       4.15318960       4.18097059      -2.12173009       63 
H       2.80972278       5.45993206      -0.48794236       65 
H       1.01169356       1.28986736      -2.49380530        0 
