108

S          1.49979       -2.07695        0.08540
Si         2.26436       -1.00314       -1.63819
C          1.63302       -1.94952       -3.13498
C          1.40700       -3.34162       -3.05520
C          0.89292       -4.04156       -4.15839
C          0.60038       -3.35911       -5.35205
C          0.83346       -1.97590       -5.44387
C          1.34805       -1.27399       -4.34225
H          1.51242       -0.18800       -4.41846
H          0.60868       -1.43885       -6.37815
H          0.19042       -3.90745       -6.21412
H          0.71521       -5.12545       -4.08430
H          1.61768       -3.88093       -2.11865
S          4.43532       -1.03521       -1.72523
Si         5.00953        0.08446        0.05310
C          6.89118        0.08697        0.03592
C          7.60391        1.12581       -0.60436
C          9.00658        1.09536       -0.66154
C          9.71101        0.02580       -0.08195
C          9.01173       -1.01513        0.55355
C          7.60921       -0.98599        0.61158
H          7.06595       -1.80592        1.10795
H          9.56138       -1.85416        1.00709
H         10.81088        0.00283       -0.12650
H          9.55216        1.91084       -1.16066
H          7.05693        1.96446       -1.06388
S          4.40542       -0.90172        1.89580
Si         2.23306       -0.88641        1.73963
C          1.58182       -1.71753        3.29459
C          1.31832       -3.10503        3.30849
C          0.79003       -3.71543        4.45715
C          0.52197       -2.94719        5.60350
C          0.79320       -1.56785        5.60246
C          1.32093       -0.95512        4.45468
H          1.51533        0.12867        4.45643
H          0.58827       -0.96420        6.49995
H          0.10147       -3.42540        6.50151
H          0.58215       -4.79647        4.45581
H          1.51062       -3.71153        2.40990
S          1.43154        1.12806        1.78242
Si         2.20357        1.98271       -0.05388
C          1.52783        3.73539       -0.12148
C          1.27974        4.35703       -1.36533
C          0.73441        5.64981       -1.41627
C          0.43302        6.33488       -0.22628
C          0.68816        5.72824        1.01590
C          1.23373        4.43571        1.06933
H          1.41602        3.96223        2.04647
H          0.45681        6.26334        1.94968
H         -0.00104        7.34575       -0.26716
H          0.53951        6.12361       -2.39068
H          1.49795        3.82113       -2.30209
S          1.46781        1.00438       -1.84119
S          4.37449        2.16323       -0.02221
S         -4.40547        0.90160       -1.89574
Si        -5.00956       -0.08457       -0.05303
C         -6.89121       -0.08695       -0.03589
C         -7.60413       -1.12606        0.60373
C         -9.00680       -1.09548        0.66076
C         -9.71104       -0.02554        0.08165
C         -9.01157        1.01565       -0.55321
C         -7.60905        0.98640       -0.61107
H         -7.06563        1.80651       -1.10697
H         -9.56107        1.85498       -1.00639
H        -10.81091       -0.00247        0.12607
H         -9.55254       -1.91116        1.15938
H         -7.05730       -1.96501        1.06287
S         -4.37456       -2.16335        0.02230
Si        -2.20363       -1.98284        0.05388
C         -1.52794       -3.73554        0.12133
C         -1.23416       -4.43594       -1.06951
C         -0.68865       -5.72850       -1.01614
C         -0.43323       -6.33508        0.22600
C         -0.73431       -5.64995        1.41603
C         -1.27959       -4.35715        1.36515
H         -1.49759       -3.82120        2.30194
H         -0.53920       -6.12371        2.39041
H          0.00080       -7.34597        0.26682
H         -0.45757       -6.26366       -1.94996
H         -1.41670       -3.96256       -2.04665
S         -1.46784       -1.00459        1.84123
Si        -2.26434        1.00296        1.63824
C         -1.63303        1.94931        3.13506
C         -1.40743        3.34147        3.05544
C         -0.89349        4.04142        4.15869
C         -0.60063        3.35890        5.35223
C         -0.83327        1.97560        5.44388
C         -1.34774        1.27369        4.34221
H         -1.51180        0.18764        4.41830
H         -0.60824        1.43848        6.37806
H         -0.19077        3.90725        6.21434
H         -0.71613        5.12538        4.08474
H         -1.61834        3.88085        2.11898
S         -4.43530        1.03512        1.72528
S         -1.49981        2.07680       -0.08534
Si        -2.23311        0.88631       -1.73959
C         -1.58182        1.71750       -3.29449
C         -1.31892        3.10511       -3.30836
C         -0.79055        3.71571       -4.45687
C         -0.52179        2.94753       -5.60310
C         -0.79242        1.56807       -5.60210
C         -1.32025        0.95514       -4.45446
H         -1.51418       -0.12872       -4.45623
H         -0.58694        0.96447       -6.49950
H         -0.10122        3.42589       -6.50100
H         -0.58315        4.79684       -4.45552
H         -1.51186        3.71148       -2.40981
S         -1.43164       -1.12819       -1.78241
