78
Properties=species:S:1:pos:R:3:tags:I:1 pbc="F F F"
S       2.81349000      -0.03407500      -0.01160300        0 
Sn       1.37916400      -1.39391700       1.41770500        1 
S       0.03439400       2.81140200      -0.02584700        2 
Sn      -1.36585100       1.41938900       1.40584000        3 
S      -2.81109000       0.03503500       0.01214400        4 
Sn      -1.41238800      -1.38468800      -1.39434600        5 
S      -0.01296900      -0.02359100      -2.86632400        6 
Sn       1.40112700       1.35920700      -1.42974300        7 
S      -0.03608300      -2.81302300       0.02646700        8 
S       0.01149500       0.02392300       2.86533500        9 
C       2.17642960      -2.20192739       2.16288857       10 
C       3.22740705      -2.69995339       4.29127533       11 
C       2.41056979      -1.88363590       3.50450145       12 
C       3.81769444      -3.84206791       3.74390893       13 
C       3.59276087      -4.17532641       2.39951104       14 
C       2.76456347      -3.34895142       1.59917723       15 
C       2.54288177      -3.68773141       0.25332074       16 
C       4.18149051      -5.32056401       1.84118693       17 
C       3.95187890      -5.64469851       0.50127386       18 
C       3.13581527      -4.83150114      -0.28949782       19 
H       1.91368010      -3.07063379      -0.37637500       20 
H       2.96216508      -5.08835130      -1.32651773       21 
H       4.81672712      -5.96119543       2.44132485       22 
H       4.40775336      -6.52874716       0.07450058       23 
H       3.40352854      -2.44654121       5.32871891       24 
H       4.44849264      -4.46466294       4.36725727       25 
H       1.95731796      -1.00076954       3.93670818       26 
C      -2.15743944       2.23968501       2.14361636       27 
C      -3.54038243       4.22747782       2.28059145       28 
C      -2.72246138       3.36861836       1.54168951       29 
C      -3.80092982       3.96551258       3.62816855       30 
C      -3.24167532       2.83704297       4.24691952       31 
C      -2.41160367       1.96416838       3.49964998       32 
C      -1.85424562       0.83548695       4.12468964       33 
C      -3.49786178       2.56595979       5.59998270       34 
C      -2.93658595       1.43968247       6.20794696       35 
C      -2.11803476       0.57788510       5.47320286       36 
H      -1.21720384       0.15520926       3.57276485       37 
H      -1.68654254      -0.29261742       5.95025268       38 
H      -4.13047020       3.22460721       6.18315493       39 
H      -3.13660623       1.23416832       7.25162066       40 
H      -3.97376969       5.09903118       1.80720375       41 
H      -4.43723479       4.64123230       4.18728654       42 
H      -2.52592833       3.57918957       0.49826849       43 
C      -2.23016338      -2.18542948      -2.12500890       44 
C      -4.46146964      -2.71720508      -2.91310842       45 
C      -3.60017501      -1.90745409      -2.16806789       46 
C      -3.96091874      -3.81238208      -3.62198844       47 
C      -2.58888856      -4.10480988      -3.58910701       48 
C      -1.71298110      -3.28499374      -2.83410477       49 
C      -0.33976004      -3.58274331      -2.80489070       50 
C      -2.07717820      -5.20276490      -4.29801098       51 
C      -0.70926275      -5.48644624      -4.25948921       52 
C       0.15598901      -4.67962983      -3.51587887       53 
H       0.34748744      -2.96980956      -2.23460653       54 
H       1.21433578      -4.90499111      -3.49036219       55 
H      -2.73519539      -5.83784661      -4.87920310       56 
H      -0.31861921      -6.33409242      -4.80757000       57 
H      -5.52045320      -2.49518794      -2.94117811       58 
H      -4.64191474      -4.43050227      -4.19493343       59 
H      -3.99650960      -1.06107905      -1.62193505       60 
C       2.21190110       2.14725919      -2.18169439       61 
C       2.47584708       4.05294033      -3.65862555       62 
C       1.66153047       3.22792137      -2.87834184       63 
C       3.84798773       3.80508572      -3.74958096       64 
C       4.41571989       2.72490858      -3.05678984       65 
C       3.59191663       1.88643559      -2.26454492       66 
C       4.16611456       0.80607055      -1.57291462       67 
C       5.79294912       2.46832741      -3.14224933       68 
C       6.34970384       1.39022565      -2.44879965       69 
C       5.53948928       0.56240064      -1.66724494       70 
H       3.55546415       0.15267725      -0.96184654       71 
H       5.97717542      -0.27084965      -1.13277183       72 
H       6.43445533       3.10106281      -3.74409265       73 
H       7.41223925       1.19574887      -2.51732902       74 
H       2.04199873       4.88720669      -4.19463015       75 
H       4.46576723       4.45412744      -4.35883249       76 
H       0.59956788       3.42724607      -2.81354982       77 
