13
Properties=species:S:1:pos:R:3 pbc="F F F"
C        0.00000000       0.00000000       1.40000898
C        0.35607389      -1.41332222       1.84790135
C       -1.40242867       0.39777581       1.84690344
C        1.04517396       1.01603359       1.84745669
H        0.79439091       2.00218122       1.46412385
H        2.02440402       0.73643904       1.46624669
H        1.08457725       1.05612851       2.93212389
H        1.34068271      -1.68637582       1.47556335
H       -0.36989682      -2.12194541       1.45644606
H        0.35817144      -1.46997502       2.93280746
H       -2.13135746      -0.31390149       1.46688634
H       -1.65065776       1.38455885       1.46345056
H       -1.45505541       0.41466985       2.93192435
