12

C      -0.675157791031203      1.227176103742780     -0.000000087143041
C       0.707547916958447      1.169164191766080     -0.000000101040061
C       1.400340327900677     -0.028887638417820     -0.000000025881051
C       0.658745563876637     -1.197333718985560     -0.000000014578571
C      -0.725187731654193     -1.198288618179190     -0.000000028991781
C      -1.366309761658923      0.028174169630790      0.000000001507679
F      -2.706357222091703      0.055829215150270      0.000000094800779
H      -1.194480333173083      2.170961915947430     -0.000000054629281
F       1.401533495700277      2.315843806750000      0.000000182938089
H       2.477345390155467     -0.051020403962870      0.000000055387659
F       1.304845201999987     -2.371677511457350     -0.000000021612041
H      -1.282902201711223     -2.119910883914200      0.000000090753249
